- Alterar vídeos no site para incluir somente links externos(Youtube) [CHECK]
- GIF de Carregamento. [CHECK]
- Icons das redes sociais. + BEHANCE - VIMEO - YOUTUBE [CHECK]
- Easter egg Créditos no FOOTER.[CHECK]
- Efeito de animação para aparição do MENU.[CHECK]
- Ao clicar em um Link ir até o local de forma sútil. [CHECK]
- Correção da responsividade. [CHECK]
- Revisar textos do Portfólio.
- Estilização do FOOTER. [CHECK]
- Ajustar PlaceHolder do SITE. [CHECK]
- Incluir LOGO (AS) No icone do site. [CHECK]
  - Efeito brilhante na LOGO. [CHECK]
- Estilização do player de Vídeo.[CHECK] 
- Ajustar Porcentagens. (CHATGPT) [CHECK]
- Solicitar para uma revisão de JS para que seja mais fácil a edição dos CARDS de forma individual ou se há outra maneira de descrição de card mais simples [CHECK]
- Inclusão dos direitos autorais. [CHECK]

- ADD mais elementos no SOBRE MIM. (Experiências, Idiomas, Certificações) [DPS]
- Ajustar todos os Posters.
- Revisar Envio de Email.
- Fundo estilizado por sessões. (Criar um background estilizado).
- Colocar todos os projetos nos Cards.
  - Indicar descrição de cada CARD.
    - Manacá Audiovisual (Evento) {Capa/cover, fotos do evento, link behance, frase curta, responsável pelo que, equipe nomes, ferramentas. ADD Tarefa realizar video MANACA}
    - Roteiros: Arquivos para Baixar + Capa. [CHECK]
    - Karma Knight: Purple
    - Zemo 
    - Lábios Vermelhos
    - Michelle
    - Fanzimentado
    - Spy vs Spy
    - Vórtex 
    - Em Memória
    - AeroDynamic 
    - Like US 
- Subir projeto no GITHUB [CHECK]
- Ler Trecho do roteiro. (Abrir Pop-up, com pequeno trecho da história)
- Gallery visualizavel, criar uma galeria que seja funcional